CemigDFeeders/ANAD08/ANAD08ChavesMT_withSO.dss
new line.CTR133014 bus1=BMT119812851.1.2.3,bus2=BMT158879271.1.2.3,Phases=3,LineCode=tieSwitch,Length=0.001,Units=km,switch=T !numEQ 
new line.CTR157115 bus1=BMT119818843.1.2.3,bus2=BMT119818899.1.2.3,Phases=3,LineCode=tieSwitch,Length=0.001,Units=km,switch=T !numEQ 
new line.CTR158242 bus1=BMT119814153.1,bus2=BMT119815511.1,Phases=1,LineCode=tieSwitch1,Length=0.001,Units=km,switch=T !numEQ 
new line.CTR27615 bus1=BMT119813803.1.2.3,bus2=BMT119818255.1.2.3,Phases=3,LineCode=tieSwitch,Length=0.001,Units=km,switch=T !numEQ 
new line.CTR372735 bus1=BMT119811934.1.2.3,bus2=BMT170074711.1.2.3,Phases=3,LineCode=tieSwitch,Length=0.001,Units=km,switch=T !numEQ 
new line.CTR53277 bus1=BMT119814286.1.2.3,bus2=BMT134843923.1.2.3,Phases=3,LineCode=tieSwitch,Length=0.001,Units=km,switch=T !numEQ 
new line.CTR58569 bus1=BMT119815539.1.2.3,bus2=BMT119815693.1.2.3,Phases=3,LineCode=tieSwitch,Length=0.001,Units=km,switch=T !numEQ 
new line.CTR58898 bus1=BMT119814230.1.2.3,bus2=BMT166240146.1.2.3,Phases=3,LineCode=tieSwitch,Length=0.001,Units=km,switch=T !numEQ 
new line.CTR64015 bus1=BMT119812823.1.2.3,bus2=BMT119818605.1.2.3,Phases=3,LineCode=tieSwitch,Length=0.001,Units=km,switch=T !numEQ 
new line.CTR73493 bus1=BMT119814034.2,bus2=BMT139647876.2,Phases=1,LineCode=tieSwitch1,Length=0.001,Units=km,switch=T !numEQ 
new line.CTR73500 bus1=BMT119814041.1.2.3,bus2=BMT119814048.1.2.3,Phases=3,LineCode=tieSwitch,Length=0.001,Units=km,switch=T !numEQ 
new line.CTR883066 bus1=BMT160045419.1.2.3,bus2=BMT169151454.1.2.3,Phases=3,LineCode=tieSwitch,Length=0.001,Units=km,switch=T !numEQ 
new line.CTR899350 bus1=BMT167091978.1.2.3,bus2=BMT167600735.1.2.3,Phases=3,LineCode=tieSwitch,Length=0.001,Units=km,switch=T !numEQ 
new line.CTR899355 bus1=BMT166475250.1.2.3,bus2=BMT166475251.1.2.3,Phases=3,LineCode=tieSwitch,Length=0.001,Units=km,switch=T !numEQ 
new line.CTR89978 bus1=BMT119813971.1,bus2=BMT119816323.1,Phases=1,LineCode=tieSwitch1,Length=0.001,Units=km,switch=T !numEQ 
new line.CTR900290 bus1=BMT166762403.1.2.3,bus2=BMT166762448.1.2.3,Phases=3,LineCode=tieSwitch,Length=0.001,Units=km,switch=T !numEQ 
new line.CTR900293 bus1=BMT166762450.2,bus2=BMT166763416.2,Phases=1,LineCode=tieSwitch1,Length=0.001,Units=km,switch=T !numEQ 
new line.CTR161973 bus1=BMT119816386.1.2.3,bus2=BMT159516892.1.2.3,Phases=3,LineCode=tieSwitch,Length=0.001,Units=km,switch=T !numEQ 
new line.CTR162337 bus1=BMT119817471.1.2.3,bus2=BMT119817478.1.2.3,Phases=3,LineCode=tieSwitch,Length=0.001,Units=km,switch=T !numEQ 
new line.CTR162610 bus1=BMT119814783.1,bus2=BMT119814797.1,Phases=1,LineCode=tieSwitch1,Length=0.001,Units=km,switch=T !numEQ 
new line.CTR163303 bus1=BMT119814349.1.2.3,bus2=BMT160277346.1.2.3,Phases=3,LineCode=tieSwitch,Length=0.001,Units=km,switch=T !numEQ 
new line.CTR324414 bus1=BMT119815259.1,bus2=BMT119815266.1,Phases=1,LineCode=tieSwitch1,Length=0.001,Units=km,switch=T !numEQ 
new line.CTR464218 bus1=BMT147030958.1.2.3,bus2=BMT170083321.1.2.3,Phases=3,LineCode=tieSwitch,Length=0.001,Units=km,switch=T !numEQ 
new line.CTR56168 bus1=BMT119813187.1.2.3,bus2=BMT166762242.1.2.3,Phases=3,LineCode=tieSwitch,Length=0.001,Units=km,switch=T !numEQ 
new line.CTR77868 bus1=BMT148460937.1,bus2=BMT148460938.1,Phases=1,LineCode=tieSwitch1,Length=0.001,Units=km,switch=T !numEQ 
new line.CTR889768 bus1=BMT162974510.1.2.3,bus2=BMT163758603.1.2.3,Phases=3,LineCode=tieSwitch,Length=0.001,Units=km,switch=T !numEQ 
new line.CTR889772 bus1=BMT162974691.1,bus2=BMT162974705.1,Phases=1,LineCode=tieSwitch1,Length=0.001,Units=km,switch=T !numEQ 
new line.CTR904125 bus1=BMT168000343.1.2.3,bus2=BMT168467882.1.2.3,Phases=3,LineCode=tieSwitch,Length=0.001,Units=km,switch=T !numEQ 
new line.CTR99981 bus1=BMT119814202.1.2.3,bus2=BMT119815455.1.2.3,Phases=3,LineCode=tieSwitch,Length=0.001,Units=km,switch=T !numEQ 
new line.CTR104307 bus1=BMT119812536.1.2.3,bus2=BMT119812669.1.2.3,Phases=3,LineCode=tieSwitch,Length=0.001,Units=km,switch=T !numEQ 
new line.CTR13146 bus1=BMT119819039.1.2.3,bus2=BMT157330009.1.2.3,Phases=3,LineCode=tieSwitch,Length=0.001,Units=km,switch=T !numEQ 
new line.CTR1414 bus1=BMT119812487.1.2.3,bus2=BMT170076129.1.2.3,Phases=3,LineCode=tieSwitch,Length=0.001,Units=km,switch=T !numEQ 
new line.CTR141981 bus1=BMT119813908.1,bus2=BMT119818199.1,Phases=1,LineCode=tieSwitch1,Length=0.001,Units=km,switch=T !numEQ 
new line.CTR167930 bus1=BMT119814363.2,bus2=BMT119814832.2,Phases=1,LineCode=tieSwitch1,Length=0.001,Units=km,switch=T !numEQ 
new line.CTR168168 bus1=BMT162974696.1,bus2=BMT119814538.1,Phases=1,LineCode=tieSwitch1,Length=0.001,Units=km,switch=T !numEQ 
new line.CTR168231 bus1=BMT119812151.1.2.3,bus2=BMT119812396.1.2.3,Phases=3,LineCode=tieSwitch,Length=0.001,Units=km,switch=T !numEQ 
new line.CTR192171 bus1=BMT119814552.1,bus2=BMT166434196.1,Phases=1,LineCode=tieSwitch1,Length=0.001,Units=km,switch=T !numEQ 
new line.CTR27293 bus1=BMT119817107.1.2.3,bus2=BMT119817121.1.2.3,Phases=3,LineCode=tieSwitch,Length=0.001,Units=km,switch=T !numEQ 
new line.CTR37002 bus1=BMT119814118.1.2.3,bus2=BMT160609375.1.2.3,Phases=3,LineCode=tieSwitch,Length=0.001,Units=km,switch=T !numEQ 
new line.CTR370215 bus1=BMT167600738.1.2.3,bus2=BMT166475827.1.2.3,Phases=3,LineCode=tieSwitch,Length=0.001,Units=km,switch=T !numEQ 230516
! MANOBRA FECHAR 
! open line.CTR370215 term=1
new line.CTR51996 bus1=BMT119813775.1.2.3,bus2=BMT167779888.1.2.3,Phases=3,LineCode=tieSwitch,Length=0.001,Units=km,switch=T !numEQ 
new line.CTR52045 bus1=BMT119813495.1.2.3,bus2=BMT119813257.1.2.3,Phases=3,LineCode=tieSwitch,Length=0.001,Units=km,switch=T !numEQ 
open line.CTR52045 term=1
new line.CTR52052 bus1=BMT119813250.1.2.3,bus2=BMT119813376.1.2.3,Phases=3,LineCode=tieSwitch,Length=0.001,Units=km,switch=T !numEQ 
new line.CTR52059 bus1=BMT119813537.1.2.3,bus2=BMT149719202.1.2.3,Phases=3,LineCode=tieSwitch,Length=0.001,Units=km,switch=T !numEQ 
new line.CTR52066 bus1=BMT119813719.1.2.3,bus2=BMT167549149.1.2.3,Phases=3,LineCode=tieSwitch,Length=0.001,Units=km,switch=T !numEQ 
new line.CTR52080 bus1=BMT119814398.1.2.3,bus2=BMT152398786.1.2.3,Phases=3,LineCode=tieSwitch,Length=0.001,Units=km,switch=T !numEQ 
new line.CTR52101 bus1=BMT157888684.1,bus2=BMT161247494.1,Phases=1,LineCode=tieSwitch1,Length=0.001,Units=km,switch=T !numEQ 
new line.CTR52108 bus1=BMT119816533.1.2.3,bus2=BMT167854977.1.2.3,Phases=3,LineCode=tieSwitch,Length=0.001,Units=km,switch=T !numEQ 
new line.CTR52115 bus1=BMT119813530.1.2.3,bus2=BMT119818388.1.2.3,Phases=3,LineCode=tieSwitch,Length=0.001,Units=km,switch=T !numEQ 
new line.CTR52129 bus1=BMT119812529.1.2.3,bus2=BMT170081605.1.2.3,Phases=3,LineCode=tieSwitch,Length=0.001,Units=km,switch=T !numEQ 47915
!manobra abrir
open line.CTR52129 term=1
new line.CTR52136 bus1=BMT119812578.1.2.3,bus2=BMT170078373.1.2.3,Phases=3,LineCode=tieSwitch,Length=0.001,Units=km,switch=T !numEQ 
new line.CTR52150 bus1=BMT119812144.1.2.3,bus2=BMT119812249.1.2.3,Phases=3,LineCode=tieSwitch,Length=0.001,Units=km,switch=T !numEQ 
new line.CTR52164 bus1=BMT119811997.1.2.3,bus2=BMT119819193.1.2.3,Phases=3,LineCode=tieSwitch,Length=0.001,Units=km,switch=T !numEQ 
new line.CTR52269 bus1=BMT119812095.1.2.3,bus2=BMT119812410.1.2.3,Phases=3,LineCode=tieSwitch,Length=0.001,Units=km,switch=T !numEQ 
new line.CTR52276 bus1=BMT119812431.1.2.3,bus2=BMT147030930.1.2.3,Phases=3,LineCode=tieSwitch,Length=0.001,Units=km,switch=T !numEQ 
new line.CTR52290 bus1=BMT119812515.1.2.3,bus2=BMT161967051.1.2.3,Phases=3,LineCode=tieSwitch,Length=0.001,Units=km,switch=T !numEQ 
new line.CTR52297 bus1=BMT119812725.1.2.3,bus2=BMT168750321.1.2.3,Phases=3,LineCode=tieSwitch,Length=0.001,Units=km,switch=T !numEQ 
new line.CTR52304 bus1=BMT119818451.1.2.3,bus2=BMT158862723.1.2.3,Phases=3,LineCode=tieSwitch,Length=0.001,Units=km,switch=T !numEQ 
new line.CTR52311 bus1=BMT119818472.1.2.3,bus2=BMT119818465.1.2.3,Phases=3,LineCode=tieSwitch,Length=0.001,Units=km,switch=T !numEQ 
new line.CTR52318 bus1=BMT119818591.1.2.3,bus2=BMT167938410.1.2.3,Phases=3,LineCode=tieSwitch,Length=0.001,Units=km,switch=T !numEQ 
new line.CTR52325 bus1=BMT119818738.1.2.3,bus2=BMT119818766.1.2.3,Phases=3,LineCode=tieSwitch,Length=0.001,Units=km,switch=T !numEQ 
new line.CTR72737 bus1=BMT119816526.1.2.3,bus2=BMT148861186.1.2.3,Phases=3,LineCode=tieSwitch,Length=0.001,Units=km,switch=T !numEQ 
new line.CTR72807 bus1=BMT119814027.1.2.3,bus2=BMT119816190.1.2.3,Phases=3,LineCode=tieSwitch,Length=0.001,Units=km,switch=T !numEQ 
new line.CTR79541 bus1=BMT119818339.1.2.3,bus2=BMT119818346.1.2.3,Phases=3,LineCode=tieSwitch,Length=0.001,Units=km,switch=T !numEQ 
new line.CTR846485 bus1=BMT148861188.1,bus2=BMT165517883.1,Phases=1,LineCode=tieSwitch1,Length=0.001,Units=km,switch=T !numEQ 
new line.CTR860274 bus1=BMT152867757.1.2.3,bus2=BMT152867999.1.2.3,Phases=3,LineCode=tieSwitch,Length=0.001,Units=km,switch=T !numEQ 
new line.CTR877212 bus1=BMT157939428.3,bus2=BMT157939328.3,Phases=1,LineCode=tieSwitch1,Length=0.001,Units=km,switch=T !numEQ 
new line.CTR90559 bus1=BMT119814251.1,bus2=BMT119815434.1,Phases=1,LineCode=tieSwitch1,Length=0.001,Units=km,switch=T !numEQ 
new line.CTR114954 bus1=BMT119814937.1.2.3,bus2=BMT119815084.1.2.3,Phases=3,LineCode=tieSwitch,Length=0.001,Units=km,switch=T !numEQ 
new line.CTR126441 bus1=BMT119816750.1.2.3,bus2=BMT119816757.1.2.3,Phases=3,LineCode=tieSwitch,Length=0.001,Units=km,switch=T !numEQ 
new line.CTR151571 bus1=BMT119815735.1.2.3,bus2=BMT119816064.1.2.3,Phases=3,LineCode=tieSwitch,Length=0.001,Units=km,switch=T !numEQ 
new line.CTR166481 bus1=BMT119814958.1.2.3,bus2=BMT119815056.1.2.3,Phases=3,LineCode=tieSwitch,Length=0.001,Units=km,switch=T !numEQ 
new line.CTR178521 bus1=BMT119813929.1.2.3,bus2=BMT119813957.1.2.3,Phases=3,LineCode=tieSwitch,Length=0.001,Units=km,switch=T !numEQ 
new line.CTR33012 bus1=BMT119815595.1.2.3,bus2=BMT156356194.1.2.3,Phases=3,LineCode=tieSwitch,Length=0.001,Units=km,switch=T !numEQ 
new line.CTR397305 bus1=BMT164492836.1.2.3,bus2=BMT164600886.1.2.3,Phases=3,LineCode=tieSwitch,Length=0.001,Units=km,switch=T !numEQ 
new line.CTR398222 bus1=BMT129046803.3,bus2=BMT157939427.3,Phases=1,LineCode=tieSwitch1,Length=0.001,Units=km,switch=T !numEQ 
new line.CTR432788 bus1=BMT138653610.1.2.3,bus2=BMT156723374.1.2.3,Phases=3,LineCode=tieSwitch,Length=0.001,Units=km,switch=T !numEQ 
new line.CTR46648 bus1=BMT119814342.1.2.3,bus2=BMT119814895.1.2.3,Phases=3,LineCode=tieSwitch,Length=0.001,Units=km,switch=T !numEQ 
new line.CTR72611 bus1=BMT119815917.1.2.3,bus2=BMT119815924.1.2.3,Phases=3,LineCode=tieSwitch,Length=0.001,Units=km,switch=T !numEQ 
new line.CTR72618 bus1=BMT119815903.1.2.3,bus2=BMT166762402.1.2.3,Phases=3,LineCode=tieSwitch,Length=0.001,Units=km,switch=T !numEQ 
new line.CTR72625 bus1=BMT119814405.1.2.3,bus2=BMT157888683.1.2.3,Phases=3,LineCode=tieSwitch,Length=0.001,Units=km,switch=T !numEQ 
new line.CTR80472 bus1=BMT119815210.1,bus2=BMT119815238.1,Phases=1,LineCode=tieSwitch1,Length=0.001,Units=km,switch=T !numEQ 
new line.CTR867236 bus1=BMT154860240.1.2.3,bus2=BMT157084497.1.2.3,Phases=3,LineCode=tieSwitch,Length=0.001,Units=km,switch=T !numEQ 
new line.CTR882460 bus1=BMT159822249.1.2.3,bus2=BMT166260662.1.2.3,Phases=3,LineCode=tieSwitch,Length=0.001,Units=km,switch=T !numEQ 
new line.CTR896049 bus1=BMT165136268.1.2.3,bus2=BMT166475825.1.2.3,Phases=3,LineCode=tieSwitch,Length=0.001,Units=km,switch=T !numEQ 
new line.CTR9219 bus1=BMT119817863.1.2.3,bus2=BMT119817870.1.2.3,Phases=3,LineCode=tieSwitch,Length=0.001,Units=km,switch=T !numEQ 
new line.CTRR39054 bus1=BMT165406641.1.2.3,bus2=BMT167091974.1.2.3,Phases=3,LineCode=tieSwitch,Length=0.001,Units=km,switch=T !numEQ 
new line.CTR137585 bus1=BMT119816694.1.2.3,bus2=BMT160705878.1.2.3,Phases=3,LineCode=tieSwitch,Length=0.001,Units=km,switch=T !numEQ 
new line.CTR137592 bus1=BMT119816673.1.2.3,bus2=BMT152269096.1.2.3,Phases=3,LineCode=tieSwitch,Length=0.001,Units=km,switch=T !numEQ 
new line.CTR137599 bus1=BMT119816715.1.2.3,bus2=BMT152269104.1.2.3,Phases=3,LineCode=tieSwitch,Length=0.001,Units=km,switch=T !numEQ 
new line.CTR137613 bus1=BMT119816974.3,bus2=BMT119817058.3,Phases=1,LineCode=tieSwitch1,Length=0.001,Units=km,switch=T !numEQ 
new line.CTR137669 bus1=BMT119811962.1.2.3,bus2=BMT170075123.1.2.3,Phases=3,LineCode=tieSwitch,Length=0.001,Units=km,switch=T !numEQ 
new line.CTR137676 bus1=BMT119812081.1.2.3,bus2=BMT119819165.1.2.3,Phases=3,LineCode=tieSwitch,Length=0.001,Units=km,switch=T !numEQ 
new line.CTR137690 bus1=BMT119812459.1.2.3,bus2=BMT119819151.1.2.3,Phases=3,LineCode=tieSwitch,Length=0.001,Units=km,switch=T !numEQ 
new line.CTR137711 bus1=BMT119819011.1.2.3,bus2=BMT119819095.1.2.3,Phases=3,LineCode=tieSwitch,Length=0.001,Units=km,switch=T !numEQ 
new line.CTR137725 bus1=BMT119812830.1.2.3,bus2=BMT160926795.1.2.3,Phases=3,LineCode=tieSwitch,Length=0.001,Units=km,switch=T !numEQ 
new line.CTR137732 bus1=BMT119812865.1.2.3,bus2=BMT153870775.1.2.3,Phases=3,LineCode=tieSwitch,Length=0.001,Units=km,switch=T !numEQ 
new line.CTR137739 bus1=BMT119813152.1.2.3,bus2=BMT157690803.1.2.3,Phases=3,LineCode=tieSwitch,Length=0.001,Units=km,switch=T !numEQ 
new line.CTR137753 bus1=BMT119813467.1.2.3,bus2=BMT119813474.1.2.3,Phases=3,LineCode=tieSwitch,Length=0.001,Units=km,switch=T !numEQ 
new line.CTR137767 bus1=BMT119813292.1.2.3,bus2=BMT119813299.1.2.3,Phases=3,LineCode=tieSwitch,Length=0.001,Units=km,switch=T !numEQ 
open line.CTR137767 term=1
new line.CTR137788 bus1=BMT119813964.1.2.3,bus2=BMT119816351.1.2.3,Phases=3,LineCode=tieSwitch,Length=0.001,Units=km,switch=T !numEQ 
new line.CTR137795 bus1=BMT119816638.1.2.3,bus2=BMT119817135.1.2.3,Phases=3,LineCode=tieSwitch,Length=0.001,Units=km,switch=T !numEQ 
new line.CTR137802 bus1=BMT119813502.1.2.3,bus2=BMT119813544.1.2.3,Phases=3,LineCode=tieSwitch,Length=0.001,Units=km,switch=T !numEQ 
new line.CTR137809 bus1=BMT119812739.1.2.3,bus2=BMT160025247.1.2.3,Phases=3,LineCode=tieSwitch,Length=0.001,Units=km,switch=T !numEQ 
new line.CTR137830 bus1=BMT119812179.1,bus2=BMT151051833.1,Phases=1,LineCode=tieSwitch1,Length=0.001,Units=km,switch=T !numEQ 
new line.CTR163576 bus1=BMT119814181.1.2.3,bus2=BMT151807034.1.2.3,Phases=3,LineCode=tieSwitch,Length=0.001,Units=km,switch=T !numEQ 
new line.CTR163723 bus1=BMT160439429.1.2.3,bus2=BMT160439952.1.2.3,Phases=3,LineCode=tieSwitch,Length=0.001,Units=km,switch=T !numEQ 
new line.CTR163730 bus1=BMT119815826.1.2.3,bus2=BMT119816022.1.2.3,Phases=3,LineCode=tieSwitch,Length=0.001,Units=km,switch=T !numEQ 
new line.CTR163737 bus1=BMT119815819.1.2.3,bus2=BMT119816036.1.2.3,Phases=3,LineCode=tieSwitch,Length=0.001,Units=km,switch=T !numEQ 
new line.CTR163751 bus1=BMT119813978.1.2.3,bus2=BMT119813985.1.2.3,Phases=3,LineCode=tieSwitch,Length=0.001,Units=km,switch=T !numEQ 
new line.CTR164521 bus1=BMT119816442.3,bus2=BMT162642210.3,Phases=1,LineCode=tieSwitch1,Length=0.001,Units=km,switch=T !numEQ 
new line.CTR176806 bus1=BMT119816232.1.2.3,bus2=BMT119816260.1.2.3,Phases=3,LineCode=tieSwitch,Length=0.001,Units=km,switch=T !numEQ 
new line.CTR177261 bus1=BMT119817149.2,bus2=BMT119817156.2,Phases=1,LineCode=tieSwitch1,Length=0.001,Units=km,switch=T !numEQ 
new line.CTR190799 bus1=BMT119816512.1.2.3,bus2=BMT139578422.1.2.3,Phases=3,LineCode=tieSwitch,Length=0.001,Units=km,switch=T !numEQ 
new line.CTR327207 bus1=BMT119812298.2,bus2=BMT119812361.2,Phases=1,LineCode=tieSwitch1,Length=0.001,Units=km,switch=T !numEQ 
new line.CTR63378 bus1=BMT119812319.1.2.3,bus2=BMT163855646.1.2.3,Phases=3,LineCode=tieSwitch,Length=0.001,Units=km,switch=T !numEQ 
new line.CTR74186 bus1=BMT119818731.1.2.3,bus2=BMT163010960.1.2.3,Phases=3,LineCode=tieSwitch,Length=0.001,Units=km,switch=T !numEQ 
new line.CTR848091 bus1=BMT149310367.1.2.3,bus2=BMT157133060.1.2.3,Phases=3,LineCode=tieSwitch,Length=0.001,Units=km,switch=T !numEQ 
new line.CTR848524 bus1=BMT160277355.1.2.3,bus2=BMT149467140.1.2.3,Phases=3,LineCode=tieSwitch,Length=0.001,Units=km,switch=T !numEQ 
new line.CTR863909 bus1=BMT153870786.1.2.3,bus2=BMT157828934.1.2.3,Phases=3,LineCode=tieSwitch,Length=0.001,Units=km,switch=T !numEQ 
new line.CTR880985 bus1=BMT159262079.1.2.3,bus2=BMT159262086.1.2.3,Phases=3,LineCode=tieSwitch,Length=0.001,Units=km,switch=T !numEQ 
new line.CTR908707 bus1=BMT170081609.1.2.3,bus2=BMT169663795.1.2.3,Phases=3,LineCode=tieSwitch,Length=0.001,Units=km,switch=T !numEQ 
open line.CTR908707 term=1
new line.CTR909491 bus1=BMT169910181.1.2.3,bus2=BMT170094121.1.2.3,Phases=3,LineCode=tieSwitch,Length=0.001,Units=km,switch=T !numEQ 
new line.CTRR35529 bus1=BMT157888745.1,bus2=BMT162974682.1,Phases=1,LineCode=tieSwitch1,Length=0.001,Units=km,switch=T !numEQ 
new line.CTR10171 bus1=BMT119817499.2,bus2=BMT119817513.2,Phases=1,LineCode=tieSwitch1,Length=0.001,Units=km,switch=T !numEQ 
new line.CTR102571 bus1=BMT119816421.1.2.3,bus2=BMT154280376.1.2.3,Phases=3,LineCode=tieSwitch,Length=0.001,Units=km,switch=T !numEQ 
new line.CTR138474 bus1=BMT119815616.1.2.3,bus2=BMT156356251.1.2.3,Phases=3,LineCode=tieSwitch,Length=0.001,Units=km,switch=T !numEQ 
new line.CTR139468 bus1=BMT119813894.3,bus2=BMT119818227.3,Phases=1,LineCode=tieSwitch1,Length=0.001,Units=km,switch=T !numEQ 
new line.CTR168861 bus1=BMT119818066.3,bus2=BMT161338378.3,Phases=1,LineCode=tieSwitch1,Length=0.001,Units=km,switch=T !numEQ 
new line.CTR168868 bus1=BMT119813901.1.2.3,bus2=BMT119817898.1.2.3,Phases=3,LineCode=tieSwitch,Length=0.001,Units=km,switch=T !numEQ 
new line.CTR168875 bus1=BMT119814076.1.2.3,bus2=BMT160440723.1.2.3,Phases=3,LineCode=tieSwitch,Length=0.001,Units=km,switch=T !numEQ 
new line.CTR168931 bus1=BMT119814335.1.2.3,bus2=BMT119815175.1.2.3,Phases=3,LineCode=tieSwitch,Length=0.001,Units=km,switch=T !numEQ 
new line.CTR168938 bus1=BMT119814916.1.2.3,bus2=BMT156062893.1.2.3,Phases=3,LineCode=tieSwitch,Length=0.001,Units=km,switch=T !numEQ 
new line.CTR169344 bus1=BMT119818654.1,bus2=BMT119818913.1,Phases=1,LineCode=tieSwitch1,Length=0.001,Units=km,switch=T !numEQ 
new line.CTR194089 bus1=BMT119816792.1.2.3,bus2=BMT119816876.1.2.3,Phases=3,LineCode=tieSwitch,Length=0.001,Units=km,switch=T !numEQ 
new line.CTR19481 bus1=BMT119815119.1.2.3,bus2=BMT162974506.1.2.3,Phases=3,LineCode=tieSwitch,Length=0.001,Units=km,switch=T !numEQ 
new line.CTR347402 bus1=BMT119817961.1,bus2=BMT163850117.1,Phases=1,LineCode=tieSwitch1,Length=0.001,Units=km,switch=T !numEQ 
new line.CTR388156 bus1=BMT148029686.1.2.3,bus2=BMT148029688.1.2.3,Phases=3,LineCode=tieSwitch,Length=0.001,Units=km,switch=T !numEQ 
new line.CTR50141 bus1=BMT119816932.1.2.3,bus2=BMT139196047.1.2.3,Phases=3,LineCode=tieSwitch,Length=0.001,Units=km,switch=T !numEQ 
new line.CTR50148 bus1=BMT119816967.1.2.3,bus2=BMT119817100.1.2.3,Phases=3,LineCode=tieSwitch,Length=0.001,Units=km,switch=T !numEQ 
new line.CTR50155 bus1=BMT119816862.1.2.3,bus2=BMT2567754.1.2.3,Phases=3,LineCode=tieSwitch,Length=0.001,Units=km,switch=T !numEQ 
open line.CTR50155 term=1
new line.CTR55377 bus1=BMT119816470.1.2.3,bus2=BMT119817492.1.2.3,Phases=3,LineCode=tieSwitch,Length=0.001,Units=km,switch=T !numEQ 
new line.CTR55566 bus1=BMT119818003.1.2.3,bus2=BMT119818038.1.2.3,Phases=3,LineCode=tieSwitch,Length=0.001,Units=km,switch=T !numEQ 
new line.CTR70847 bus1=BMT119815756.1.3,bus2=BMT161219575.1.3,Phases=2,LineCode=tieSwitch,Length=0.001,Units=km,switch=T !numEQ 
new line.CTR862386 bus1=BMT153422187.1.2.3,bus2=BMT160447332.1.2.3,Phases=3,LineCode=tieSwitch,Length=0.001,Units=km,switch=T !numEQ 
new line.CTR888246 bus1=BMT162308590.3,bus2=BMT162308610.3,Phases=1,LineCode=tieSwitch1,Length=0.001,Units=km,switch=T !numEQ 
new line.CTR88935 bus1=BMT119812858.1.2.3,bus2=BMT119813005.1.2.3,Phases=3,LineCode=tieSwitch,Length=0.001,Units=km,switch=T !numEQ 
new line.CTR897257 bus1=BMT165641474.1.2.3,bus2=BMT165642070.1.2.3,Phases=3,LineCode=tieSwitch,Length=0.001,Units=km,switch=T !numEQ 
new line.CTR89726 bus1=BMT119815196.1.2.3,bus2=BMT119815280.1.2.3,Phases=3,LineCode=tieSwitch,Length=0.001,Units=km,switch=T !numEQ 
new line.CTR898631 bus1=BMT166260663.1.2.3,bus2=BMT166262762.1.2.3,Phases=3,LineCode=tieSwitch,Length=0.001,Units=km,switch=T !numEQ 
new line.CTR90769 bus1=BMT119815567.1.2.3,bus2=BMT152872034.1.2.3,Phases=3,LineCode=tieSwitch,Length=0.001,Units=km,switch=T !numEQ 
new line.CTR90776 bus1=BMT119815644.1,bus2=BMT119815658.1,Phases=1,LineCode=tieSwitch1,Length=0.001,Units=km,switch=T !numEQ 
new line.CTRR41439 bus1=BMT169939529.1.2.3,bus2=BMT170074900.1.2.3,Phases=3,LineCode=tieSwitch,Length=0.001,Units=km,switch=T !numEQ 
new line.CTRR41440 bus1=BMT169939890.1.2.3,bus2=BMT169939891.1.2.3,Phases=3,LineCode=tieSwitch,Length=0.001,Units=km,switch=T !numEQ 
new line.CTRR609 bus1=BMT163466173.1.2.3,bus2=BMT119813789.1.2.3,Phases=3,LineCode=tieSwitch,Length=0.001,Units=km,switch=T !numEQ 
new line.CTR122906 bus1=BMT119815798.1.2.3,bus2=BMT119816050.1.2.3,Phases=3,LineCode=tieSwitch,Length=0.001,Units=km,switch=T !numEQ 
new line.CTR150724 bus1=BMT119813222.1.2.3,bus2=BMT151733677.1.2.3,Phases=3,LineCode=tieSwitch,Length=0.001,Units=km,switch=T !numEQ 
new line.CTR1610 bus1=BMT167549153.1.2.3,bus2=BMT2902221.1.2.3,Phases=3,LineCode=tieSwitch,Length=0.001,Units=km,switch=T !numEQ 
open line.CTR1610 term=1
new line.CTR16191 bus1=BMT119812067.1.2.3,bus2=BMT119819179.1.2.3,Phases=3,LineCode=tieSwitch,Length=0.001,Units=km,switch=T !numEQ 
new line.CTR173474 bus1=BMT119813138.1.2.3,bus2=BMT119813159.1.2.3,Phases=3,LineCode=tieSwitch,Length=0.001,Units=km,switch=T !numEQ 
new line.CTR1855 bus1=BMT119818458.1.2.3,bus2=BMT119819123.1.2.3,Phases=3,LineCode=tieSwitch,Length=0.001,Units=km,switch=T !numEQ 
new line.CTR185892 bus1=BMT119812571.1.2.3,bus2=BMT170081610.1.2.3,Phases=3,LineCode=tieSwitch,Length=0.001,Units=km,switch=T !numEQ 
new line.CTR186102 bus1=BMT165642073.1.2.3,bus2=BMT119812172.1.2.3,Phases=3,LineCode=tieSwitch,Length=0.001,Units=km,switch=T !numEQ 
new line.CTR54089 bus1=BMT119815462.1.2.3,bus2=BMT119815469.1.2.3,Phases=3,LineCode=tieSwitch,Length=0.001,Units=km,switch=T !numEQ 
new line.CTR54117 bus1=BMT119813754.1.2.3,bus2=BMT163466172.1.2.3,Phases=3,LineCode=tieSwitch,Length=0.001,Units=km,switch=T !numEQ 
new line.CTR59528 bus1=BMT119817233.1.2.3,bus2=BMT119817331.1.2.3,Phases=3,LineCode=tieSwitch,Length=0.001,Units=km,switch=T !numEQ 
new line.CTR69496 bus1=BMT119813271.1.2.3,bus2=BMT119813341.1.2.3,Phases=3,LineCode=tieSwitch,Length=0.001,Units=km,switch=T !numEQ 
new line.CTR69643 bus1=BMT119815833.1.2.3,bus2=BMT119816008.1.2.3,Phases=3,LineCode=tieSwitch,Length=0.001,Units=km,switch=T !numEQ 
new line.CTR75215 bus1=BMT119812473.1.2.3,bus2=BMT119819137.1.2.3,Phases=3,LineCode=tieSwitch,Length=0.001,Units=km,switch=T !numEQ 
new line.CTR885265 bus1=BMT161063838.1.2.3,bus2=BMT161064228.1.2.3,Phases=3,LineCode=tieSwitch,Length=0.001,Units=km,switch=T !numEQ 
new line.CTRR36491 bus1=BMT160025250.1.2.3,bus2=BMT161725748.1.2.3,Phases=3,LineCode=tieSwitch,Length=0.001,Units=km,switch=T !numEQ 
new line.CTRR37148 bus1=BMT161967053.1.2.3,bus2=BMT168750371.1.2.3,Phases=3,LineCode=tieSwitch,Length=0.001,Units=km,switch=T !numEQ 
new line.CTRR37366 bus1=BMT167813377.1.2.3,bus2=BMT2905532.1.2.3,Phases=3,LineCode=tieSwitch,Length=0.001,Units=km,switch=T !numEQ 
open line.CTRR37366 term=1
new line.CTRR37891 bus1=BMT163855648.1.2.3,bus2=BMT162780413.1.2.3,Phases=3,LineCode=tieSwitch,Length=0.001,Units=km,switch=T !numEQ 
open line.CTRR37891 term=1
new line.CTR145278 bus1=BMT119818059.3,bus2=BMT119818136.3,Phases=1,LineCode=tieSwitch1,Length=0.001,Units=km,switch=T !numEQ 
new line.CTR159124 bus1=BMT119815217.1.2.3,bus2=BMT119815224.1.2.3,Phases=3,LineCode=tieSwitch,Length=0.001,Units=km,switch=T !numEQ 
new line.CTR159621 bus1=BMT119816519.2,bus2=BMT119817345.2,Phases=1,LineCode=tieSwitch1,Length=0.001,Units=km,switch=T !numEQ 
new line.CTR159747 bus1=BMT119815357.1.2.3,bus2=BMT145674925.1.2.3,Phases=3,LineCode=tieSwitch,Length=0.001,Units=km,switch=T !numEQ 
new line.CTR170128 bus1=BMT119817982.1.2.3,bus2=BMT161458768.1.2.3,Phases=3,LineCode=tieSwitch,Length=0.001,Units=km,switch=T !numEQ 
new line.CTR171388 bus1=BMT119817023.1.2.3,bus2=BMT137852040.1.2.3,Phases=3,LineCode=tieSwitch,Length=0.001,Units=km,switch=T !numEQ 
new line.CTR195594 bus1=BMT119812963.1.2.3,bus2=BMT168467676.1.2.3,Phases=3,LineCode=tieSwitch,Length=0.001,Units=km,switch=T !numEQ 
new line.CTR280 bus1=BMT166240163.1.2.3,bus2=BMT150444440.1.2.3,Phases=3,LineCode=tieSwitch,Length=0.001,Units=km,switch=T !numEQ 
new line.CTR377621 bus1=BMT129002668.1.2.3,bus2=BMT136914082.1.2.3,Phases=3,LineCode=tieSwitch,Length=0.001,Units=km,switch=T !numEQ 
new line.CTR378657 bus1=BMT119818423.1.2.3,bus2=BMT119818416.1.2.3,Phases=3,LineCode=tieSwitch,Length=0.001,Units=km,switch=T !numEQ 
open line.CTR378657 term=1
new line.CTR378685 bus1=BMT119818521.1.2.3,bus2=BMT119818507.1.2.3,Phases=3,LineCode=tieSwitch,Length=0.001,Units=km,switch=T !numEQ 
new line.CTR417024 bus1=BMT139196054.1.2.3,bus2=BMT162257846.1.2.3,Phases=3,LineCode=tieSwitch,Length=0.001,Units=km,switch=T !numEQ 
new line.CTR59815 bus1=BMT149719204.1.2.3,bus2=BMT119813593.1.2.3,Phases=3,LineCode=tieSwitch,Length=0.001,Units=km,switch=T !numEQ 
new line.CTR82285 bus1=BMT119812914.1.2.3,bus2=BMT119812991.1.2.3,Phases=3,LineCode=tieSwitch,Length=0.001,Units=km,switch=T !numEQ 
new line.CTR82348 bus1=BMT119814748.1.2.3,bus2=BMT119814811.1.2.3,Phases=3,LineCode=tieSwitch,Length=0.001,Units=km,switch=T !numEQ 
new line.CTR872050 bus1=BMT160609387.1,bus2=BMT156359581.1,Phases=1,LineCode=tieSwitch1,Length=0.001,Units=km,switch=T !numEQ 
new line.CTR90286 bus1=BMT119812025.1.2.3,bus2=BMT170071240.1.2.3,Phases=3,LineCode=tieSwitch,Length=0.001,Units=km,switch=T !numEQ 
new line.CTR903612 bus1=BMT167813369.1.2.3,bus2=BMT167813370.1.2.3,Phases=3,LineCode=tieSwitch,Length=0.001,Units=km,switch=T !numEQ 
